REMARK  Name = celecoxib_COX2.pdb
REMARK  6 active torsions:
REMARK  status: ('A' for Active; 'I' for Inactive)
REMARK    1  A    between atoms: S1_1  and  C15_2
REMARK    2  A    between atoms: S1_1  and  N3_24
REMARK    3  A    between atoms: C12_5  and  N2_8
REMARK    4  A    between atoms: C3_9  and  C5_10
REMARK    5  A    between atoms: C8_13  and  C11_14
REMARK    6  A    between atoms: C1_18  and  C4_19
REMARK                            x       y       z     vdW  Elec       q    Type
REMARK                         _______ _______ _______ _____ _____    ______ ____
ROOT
ATOM      1  N2  CEL A   1      31.724 -22.006 -17.132  0.00  0.00    +0.000 N 
ATOM      2  C3  CEL A   1      32.622 -22.574 -16.260  0.00  0.00    +0.000 A 
ATOM      3  C2  CEL A   1      33.843 -22.337 -16.837  0.00  0.00    +0.000 A 
ATOM      4  C1  CEL A   1      33.589 -21.637 -18.031  0.00  0.00    +0.000 A 
ATOM      5  N1  CEL A   1      32.290 -21.424 -18.201  0.00  0.00    +0.000 NA
ENDROOT
BRANCH   2   6
ATOM      6  C5  CEL A   1      32.417 -23.237 -14.985  0.00  0.00    +0.000 A 
ATOM      7  C10 CEL A   1      31.570 -22.735 -14.016  0.00  0.00    +0.000 A 
ATOM      8  C9  CEL A   1      31.446 -23.390 -12.819  0.00  0.00    +0.000 A 
ATOM      9  C8  CEL A   1      32.170 -24.541 -12.587  0.00  0.00    +0.000 A 
ATOM     10  C11 CEL A   1      32.056 -25.290 -11.306  0.00  0.00    +0.000 C 
ATOM     11  C7  CEL A   1      33.023 -25.030 -13.549  0.00  0.00    +0.000 A 
ATOM     12  C6  CEL A   1      33.152 -24.373 -14.743  0.00  0.00    +0.000 A 
ENDBRANCH   2   6
BRANCH   1  16
ATOM     13  C15 CEL A   1      27.679 -21.706 -17.131  0.00  0.00    +0.000 A 
ATOM     14  C14 CEL A   1      28.218 -22.829 -16.556  0.00  0.00    +0.000 A 
ATOM     15  C13 CEL A   1      29.584 -22.964 -16.543  0.00  0.00    +0.000 A 
ATOM     16  C12 CEL A   1      30.341 -21.967 -17.109  0.00  0.00    +0.000 A 
ATOM     17  C17 CEL A   1      29.796 -20.853 -17.697  0.00  0.00    +0.000 A 
ATOM     18  C16 CEL A   1      28.434 -20.714 -17.707  0.00  0.00    +0.000 A 
BRANCH  13  19
ATOM     19  S1  CEL A   1      25.931 -21.467 -17.155  0.00  0.00    +0.000 S 
ATOM     20  O2  CEL A   1      25.772 -20.039 -17.291  0.00  0.00    +0.000 OA
ATOM     21  O1  CEL A   1      25.436 -22.106 -15.949  0.00  0.00    +0.000 OA
BRANCH  19  22
ATOM     22  N3  CEL A   1      25.378 -22.226 -18.605  0.00  0.00    +0.000 NA
ATOM     23  H   CEL A   1      25.485 -23.237 -18.522  0.00  0.00    +0.000 HD
ATOM     24  H   CEL A   1      25.928 -21.890 -19.396  0.00  0.00    +0.000 HD
ENDBRANCH  19  22
ENDBRANCH  13  19
ENDBRANCH   1  16
BRANCH   4  25
ATOM     25  C4  CEL A   1      34.554 -21.135 -19.002  0.00  0.00    +0.000 C 
ATOM     26  F3  CEL A   1      34.560 -21.752 -20.210  0.00  0.00    +0.000 F 
ATOM     27  F2  CEL A   1      34.302 -19.828 -19.223  0.00  0.00    +0.000 F 
ATOM     28  F1  CEL A   1      35.816 -21.214 -18.544  0.00  0.00    +0.000 F 
ENDBRANCH   4  25
TORSDOF 5
